<?xml version="1.0" encoding="UTF-8" standalone="yes"?>
<template encoding-version="1.3">
    <description></description>
    <groupId>e58f195d-018d-1000-015e-7906aae75d94</groupId>
    <name>aviation</name>
    <snippet>
        <processGroups>
            <id>e7711ce0-3250-33cc-0000-000000000000</id>
            <parentGroupId>6a4ad3db-55f5-3ca9-0000-000000000000</parentGroupId>
            <position>
                <x>0.0</x>
                <y>0.0</y>
            </position>
            <versionedComponentId>e7711ce0-3250-33cc-831b-a6a1ce8f7247</versionedComponentId>
            <comments></comments>
            <contents>
                <connections>
                    <id>02b96f2d-f786-32e8-0000-000000000000</id>
                    <parentGroupId>e7711ce0-3250-33cc-0000-000000000000</parentGroupId>
                    <versionedComponentId>02b96f2d-f786-32e8-8c57-325d3f993fe8</versionedComponentId>
                    <backPressureDataSizeThreshold>1 GB</backPressureDataSizeThreshold>
                    <backPressureObjectThreshold>10000</backPressureObjectThreshold>
                    <bends>
                        <x>624.0</x>
                        <y>72.0</y>
                    </bends>
                    <destination>
                        <groupId>e7711ce0-3250-33cc-0000-000000000000</groupId>
                        <id>c98b5542-0bb9-3976-0000-000000000000</id>
                        <type>PROCESSOR</type>
                        <versionedComponentId>c98b5542-0bb9-3976-9bf2-e6b8f4fba1e9</versionedComponentId>
                    </destination>
                    <flowFileExpiration>0 sec</flowFileExpiration>
                    <labelIndex>0</labelIndex>
                    <loadBalanceCompression>DO_NOT_COMPRESS</loadBalanceCompression>
                    <loadBalancePartitionAttribute></loadBalancePartitionAttribute>
                    <loadBalanceStatus>LOAD_BALANCE_NOT_CONFIGURED</loadBalanceStatus>
                    <loadBalanceStrategy>DO_NOT_LOAD_BALANCE</loadBalanceStrategy>
                    <name></name>
                    <selectedRelationships>original</selectedRelationships>
                    <source>
                        <groupId>e7711ce0-3250-33cc-0000-000000000000</groupId>
                        <id>b1e67a3a-565f-351f-0000-000000000000</id>
                        <type>PROCESSOR</type>
                        <versionedComponentId>b1e67a3a-565f-351f-8aaa-d2a80dbd0854</versionedComponentId>
                    </source>
                    <zIndex>0</zIndex>
                </connections>
                <connections>
                    <id>10eef0e4-4e39-3049-0000-000000000000</id>
                    <parentGroupId>e7711ce0-3250-33cc-0000-000000000000</parentGroupId>
                    <versionedComponentId>10eef0e4-4e39-3049-a909-caf981fe1cca</versionedComponentId>
                    <backPressureDataSizeThreshold>1 GB</backPressureDataSizeThreshold>
                    <backPressureObjectThreshold>10000</backPressureObjectThreshold>
                    <bends>
                        <x>623.3868850361132</x>
                        <y>522.3520866554786</y>
                    </bends>
                    <bends>
                        <x>623.3868850361132</x>
                        <y>572.3520866554786</y>
                    </bends>
                    <destination>
                        <groupId>e7711ce0-3250-33cc-0000-000000000000</groupId>
                        <id>88181de2-c709-3192-0000-000000000000</id>
                        <type>PROCESSOR</type>
                        <versionedComponentId>88181de2-c709-3192-807a-08ab28ea79cd</versionedComponentId>
                    </destination>
                    <flowFileExpiration>0 sec</flowFileExpiration>
                    <labelIndex>1</labelIndex>
                    <loadBalanceCompression>DO_NOT_COMPRESS</loadBalanceCompression>
                    <loadBalancePartitionAttribute></loadBalancePartitionAttribute>
                    <loadBalanceStatus>LOAD_BALANCE_NOT_CONFIGURED</loadBalanceStatus>
                    <loadBalanceStrategy>DO_NOT_LOAD_BALANCE</loadBalanceStrategy>
                    <name></name>
                    <selectedRelationships>retry</selectedRelationships>
                    <source>
                        <groupId>e7711ce0-3250-33cc-0000-000000000000</groupId>
                        <id>88181de2-c709-3192-0000-000000000000</id>
                        <type>PROCESSOR</type>
                        <versionedComponentId>88181de2-c709-3192-807a-08ab28ea79cd</versionedComponentId>
                    </source>
                    <zIndex>0</zIndex>
                </connections>
                <connections>
                    <id>3bb535c4-1614-3085-0000-000000000000</id>
                    <parentGroupId>e7711ce0-3250-33cc-0000-000000000000</parentGroupId>
                    <versionedComponentId>3bb535c4-1614-3085-996f-49c0cb9fa096</versionedComponentId>
                    <backPressureDataSizeThreshold>1 GB</backPressureDataSizeThreshold>
                    <backPressureObjectThreshold>10000</backPressureObjectThreshold>
                    <bends>
                        <x>-32.0</x>
                        <y>520.0</y>
                    </bends>
                    <destination>
                        <groupId>e7711ce0-3250-33cc-0000-000000000000</groupId>
                        <id>88181de2-c709-3192-0000-000000000000</id>
                        <type>PROCESSOR</type>
                        <versionedComponentId>88181de2-c709-3192-807a-08ab28ea79cd</versionedComponentId>
                    </destination>
                    <flowFileExpiration>0 sec</flowFileExpiration>
                    <labelIndex>0</labelIndex>
                    <loadBalanceCompression>DO_NOT_COMPRESS</loadBalanceCompression>
                    <loadBalancePartitionAttribute></loadBalancePartitionAttribute>
                    <loadBalanceStatus>LOAD_BALANCE_NOT_CONFIGURED</loadBalanceStatus>
                    <loadBalanceStrategy>DO_NOT_LOAD_BALANCE</loadBalanceStrategy>
                    <name></name>
                    <selectedRelationships>sql</selectedRelationships>
                    <source>
                        <groupId>e7711ce0-3250-33cc-0000-000000000000</groupId>
                        <id>be2d578e-d787-35fe-0000-000000000000</id>
                        <type>PROCESSOR</type>
                        <versionedComponentId>be2d578e-d787-35fe-bea0-5b68670db8bf</versionedComponentId>
                    </source>
                    <zIndex>0</zIndex>
                </connections>
                <connections>
                    <id>4efccd97-69f1-319b-0000-000000000000</id>
                    <parentGroupId>e7711ce0-3250-33cc-0000-000000000000</parentGroupId>
                    <versionedComponentId>4efccd97-69f1-319b-8d07-c98477ecb2b2</versionedComponentId>
                    <backPressureDataSizeThreshold>1 GB</backPressureDataSizeThreshold>
                    <backPressureObjectThreshold>10000</backPressureObjectThreshold>
                    <bends>
                        <x>-24.0</x>
                        <y>360.0</y>
                    </bends>
                    <destination>
                        <groupId>e7711ce0-3250-33cc-0000-000000000000</groupId>
                        <id>be2d578e-d787-35fe-0000-000000000000</id>
                        <type>PROCESSOR</type>
                        <versionedComponentId>be2d578e-d787-35fe-bea0-5b68670db8bf</versionedComponentId>
                    </destination>
                    <flowFileExpiration>0 sec</flowFileExpiration>
                    <labelIndex>0</labelIndex>
                    <loadBalanceCompression>DO_NOT_COMPRESS</loadBalanceCompression>
                    <loadBalancePartitionAttribute></loadBalancePartitionAttribute>
                    <loadBalanceStatus>LOAD_BALANCE_NOT_CONFIGURED</loadBalanceStatus>
                    <loadBalanceStrategy>DO_NOT_LOAD_BALANCE</loadBalanceStrategy>
                    <name></name>
                    <selectedRelationships>success</selectedRelationships>
                    <source>
                        <groupId>e7711ce0-3250-33cc-0000-000000000000</groupId>
                        <id>d86520a7-a62a-3b4d-0000-000000000000</id>
                        <type>PROCESSOR</type>
                        <versionedComponentId>d86520a7-a62a-3b4d-ba6b-2579989e0d12</versionedComponentId>
                    </source>
                    <zIndex>0</zIndex>
                </connections>
                <connections>
                    <id>77e58996-6a33-381b-0000-000000000000</id>
                    <parentGroupId>e7711ce0-3250-33cc-0000-000000000000</parentGroupId>
                    <versionedComponentId>77e58996-6a33-381b-bf38-32188c57bb49</versionedComponentId>
                    <backPressureDataSizeThreshold>1 GB</backPressureDataSizeThreshold>
                    <backPressureObjectThreshold>10000</backPressureObjectThreshold>
                    <bends>
                        <x>-24.0</x>
                        <y>168.0</y>
                    </bends>
                    <destination>
                        <groupId>e7711ce0-3250-33cc-0000-000000000000</groupId>
                        <id>d86520a7-a62a-3b4d-0000-000000000000</id>
                        <type>PROCESSOR</type>
                        <versionedComponentId>d86520a7-a62a-3b4d-ba6b-2579989e0d12</versionedComponentId>
                    </destination>
                    <flowFileExpiration>0 sec</flowFileExpiration>
                    <labelIndex>0</labelIndex>
                    <loadBalanceCompression>DO_NOT_COMPRESS</loadBalanceCompression>
                    <loadBalancePartitionAttribute></loadBalancePartitionAttribute>
                    <loadBalanceStatus>LOAD_BALANCE_NOT_CONFIGURED</loadBalanceStatus>
                    <loadBalanceStrategy>DO_NOT_LOAD_BALANCE</loadBalanceStrategy>
                    <name></name>
                    <selectedRelationships>split</selectedRelationships>
                    <source>
                        <groupId>e7711ce0-3250-33cc-0000-000000000000</groupId>
                        <id>b1e67a3a-565f-351f-0000-000000000000</id>
                        <type>PROCESSOR</type>
                        <versionedComponentId>b1e67a3a-565f-351f-8aaa-d2a80dbd0854</versionedComponentId>
                    </source>
                    <zIndex>0</zIndex>
                </connections>
                <connections>
                    <id>8496cb23-3de2-3527-0000-000000000000</id>
                    <parentGroupId>e7711ce0-3250-33cc-0000-000000000000</parentGroupId>
                    <versionedComponentId>8496cb23-3de2-3527-90ca-6ae24d4c298c</versionedComponentId>
                    <backPressureDataSizeThreshold>1 GB</backPressureDataSizeThreshold>
                    <backPressureObjectThreshold>10000</backPressureObjectThreshold>
                    <bends>
                        <x>704.0</x>
                        <y>144.0</y>
                    </bends>
                    <destination>
                        <groupId>e7711ce0-3250-33cc-0000-000000000000</groupId>
                        <id>b1e67a3a-565f-351f-0000-000000000000</id>
                        <type>PROCESSOR</type>
                        <versionedComponentId>b1e67a3a-565f-351f-8aaa-d2a80dbd0854</versionedComponentId>
                    </destination>
                    <flowFileExpiration>0 sec</flowFileExpiration>
                    <labelIndex>1</labelIndex>
                    <loadBalanceCompression>DO_NOT_COMPRESS</loadBalanceCompression>
                    <loadBalancePartitionAttribute></loadBalancePartitionAttribute>
                    <loadBalanceStatus>LOAD_BALANCE_NOT_CONFIGURED</loadBalanceStatus>
                    <loadBalanceStrategy>DO_NOT_LOAD_BALANCE</loadBalanceStrategy>
                    <name></name>
                    <selectedRelationships>success</selectedRelationships>
                    <source>
                        <groupId>e7711ce0-3250-33cc-0000-000000000000</groupId>
                        <id>c98b5542-0bb9-3976-0000-000000000000</id>
                        <type>PROCESSOR</type>
                        <versionedComponentId>c98b5542-0bb9-3976-9bf2-e6b8f4fba1e9</versionedComponentId>
                    </source>
                    <zIndex>0</zIndex>
                </connections>
                <connections>
                    <id>932cb88d-40f9-3b33-0000-000000000000</id>
                    <parentGroupId>e7711ce0-3250-33cc-0000-000000000000</parentGroupId>
                    <versionedComponentId>932cb88d-40f9-3b33-b985-f8b74e4d3204</versionedComponentId>
                    <backPressureDataSizeThreshold>1 GB</backPressureDataSizeThreshold>
                    <backPressureObjectThreshold>10000</backPressureObjectThreshold>
                    <bends>
                        <x>-16.0</x>
                        <y>-96.0</y>
                    </bends>
                    <destination>
                        <groupId>e7711ce0-3250-33cc-0000-000000000000</groupId>
                        <id>466999fb-7277-3804-0000-000000000000</id>
                        <type>PROCESSOR</type>
                        <versionedComponentId>466999fb-7277-3804-9bd2-da5a19a1f115</versionedComponentId>
                    </destination>
                    <flowFileExpiration>0 sec</flowFileExpiration>
                    <labelIndex>0</labelIndex>
                    <loadBalanceCompression>DO_NOT_COMPRESS</loadBalanceCompression>
                    <loadBalancePartitionAttribute></loadBalancePartitionAttribute>
                    <loadBalanceStatus>LOAD_BALANCE_NOT_CONFIGURED</loadBalanceStatus>
                    <loadBalanceStrategy>DO_NOT_LOAD_BALANCE</loadBalanceStrategy>
                    <name></name>
                    <selectedRelationships>success</selectedRelationships>
                    <source>
                        <groupId>e7711ce0-3250-33cc-0000-000000000000</groupId>
                        <id>7c018a4a-c5d7-33c0-0000-000000000000</id>
                        <type>PROCESSOR</type>
                        <versionedComponentId>7c018a4a-c5d7-33c0-adfc-8b5c9b2fc87b</versionedComponentId>
                    </source>
                    <zIndex>0</zIndex>
                </connections>
                <connections>
                    <id>f387e89c-77a7-3a8d-0000-000000000000</id>
                    <parentGroupId>e7711ce0-3250-33cc-0000-000000000000</parentGroupId>
                    <versionedComponentId>f387e89c-77a7-3a8d-9330-5aa252b9439e</versionedComponentId>
                    <backPressureDataSizeThreshold>1 GB</backPressureDataSizeThreshold>
                    <backPressureObjectThreshold>10000</backPressureObjectThreshold>
                    <bends>
                        <x>-16.0</x>
                        <y>16.0</y>
                    </bends>
                    <destination>
                        <groupId>e7711ce0-3250-33cc-0000-000000000000</groupId>
                        <id>b1e67a3a-565f-351f-0000-000000000000</id>
                        <type>PROCESSOR</type>
                        <versionedComponentId>b1e67a3a-565f-351f-8aaa-d2a80dbd0854</versionedComponentId>
                    </destination>
                    <flowFileExpiration>0 sec</flowFileExpiration>
                    <labelIndex>0</labelIndex>
                    <loadBalanceCompression>DO_NOT_COMPRESS</loadBalanceCompression>
                    <loadBalancePartitionAttribute></loadBalancePartitionAttribute>
                    <loadBalanceStatus>LOAD_BALANCE_NOT_CONFIGURED</loadBalanceStatus>
                    <loadBalanceStrategy>DO_NOT_LOAD_BALANCE</loadBalanceStrategy>
                    <name></name>
                    <selectedRelationships>Response</selectedRelationships>
                    <source>
                        <groupId>e7711ce0-3250-33cc-0000-000000000000</groupId>
                        <id>466999fb-7277-3804-0000-000000000000</id>
                        <type>PROCESSOR</type>
                        <versionedComponentId>466999fb-7277-3804-9bd2-da5a19a1f115</versionedComponentId>
                    </source>
                    <zIndex>0</zIndex>
                </connections>
                <controllerServices>
                    <id>a8b0fe90-c74e-318d-0000-000000000000</id>
                    <parentGroupId>e7711ce0-3250-33cc-0000-000000000000</parentGroupId>
                    <versionedComponentId>a8b0fe90-c74e-318d-9956-dd7c1f3c47e8</versionedComponentId>
                    <bulletinLevel>WARN</bulletinLevel>
                    <bundle>
                        <artifact>nifi-dbcp-service-nar</artifact>
                        <group>org.apache.nifi</group>
                        <version>1.25.0</version>
                    </bundle>
                    <comments></comments>
                    <descriptors>
                        <entry>
                            <key>Database Connection URL</key>
                            <value>
<name>Database Connection URL</name>
                            </value>
                        </entry>
                        <entry>
                            <key>Database Driver Class Name</key>
                            <value>
<name>Database Driver Class Name</name>
                            </value>
                        </entry>
                        <entry>
                            <key>database-driver-locations</key>
                            <value>
<name>database-driver-locations</name>
                            </value>
                        </entry>
                        <entry>
                            <key>kerberos-user-service</key>
                            <value>
<identifiesControllerService>org.apache.nifi.kerberos.KerberosUserService</identifiesControllerService>
<name>kerberos-user-service</name>
                            </value>
                        </entry>
                        <entry>
                            <key>kerberos-credentials-service</key>
                            <value>
<identifiesControllerService>org.apache.nifi.kerberos.KerberosCredentialsService</identifiesControllerService>
<name>kerberos-credentials-service</name>
                            </value>
                        </entry>
                        <entry>
                            <key>kerberos-principal</key>
                            <value>
<name>kerberos-principal</name>
                            </value>
                        </entry>
                        <entry>
                            <key>kerberos-password</key>
                            <value>
<name>kerberos-password</name>
                            </value>
                        </entry>
                        <entry>
                            <key>Database User</key>
                            <value>
<name>Database User</name>
                            </value>
                        </entry>
                        <entry>
                            <key>Password</key>
                            <value>
<name>Password</name>
                            </value>
                        </entry>
                        <entry>
                            <key>Max Wait Time</key>
                            <value>
<name>Max Wait Time</name>
                            </value>
                        </entry>
                        <entry>
                            <key>Max Total Connections</key>
                            <value>
<name>Max Total Connections</name>
                            </value>
                        </entry>
                        <entry>
                            <key>Validation-query</key>
                            <value>
<name>Validation-query</name>
                            </value>
                        </entry>
                        <entry>
                            <key>dbcp-min-idle-conns</key>
                            <value>
<name>dbcp-min-idle-conns</name>
                            </value>
                        </entry>
                        <entry>
                            <key>dbcp-max-idle-conns</key>
                            <value>
<name>dbcp-max-idle-conns</name>
                            </value>
                        </entry>
                        <entry>
                            <key>dbcp-max-conn-lifetime</key>
                            <value>
<name>dbcp-max-conn-lifetime</name>
                            </value>
                        </entry>
                        <entry>
                            <key>dbcp-time-between-eviction-runs</key>
                            <value>
<name>dbcp-time-between-eviction-runs</name>
                            </value>
                        </entry>
                        <entry>
                            <key>dbcp-min-evictable-idle-time</key>
                            <value>
<name>dbcp-min-evictable-idle-time</name>
                            </value>
                        </entry>
                        <entry>
                            <key>dbcp-soft-min-evictable-idle-time</key>
                            <value>
<name>dbcp-soft-min-evictable-idle-time</name>
                            </value>
                        </entry>
                    </descriptors>
                    <name>Mysql</name>
                    <persistsState>false</persistsState>
                    <properties>
                        <entry>
                            <key>Database Connection URL</key>
                            <value>jdbc:mysql://localhost:3306/dbflights</value>
                        </entry>
                        <entry>
                            <key>Database Driver Class Name</key>
                            <value>com.mysql.cj.jdbc.Driver</value>
                        </entry>
                        <entry>
                            <key>database-driver-locations</key>
                            <value>\Users\pc\Desktop\etl\nifi-1.25.0\lib</value>
                        </entry>
                        <entry>
                            <key>kerberos-user-service</key>
                        </entry>
                        <entry>
                            <key>kerberos-credentials-service</key>
                        </entry>
                        <entry>
                            <key>kerberos-principal</key>
                        </entry>
                        <entry>
                            <key>kerberos-password</key>
                        </entry>
                        <entry>
                            <key>Database User</key>
                            <value>root</value>
                        </entry>
                        <entry>
                            <key>Password</key>
                        </entry>
                        <entry>
                            <key>Max Wait Time</key>
                            <value>500 millis</value>
                        </entry>
                        <entry>
                            <key>Max Total Connections</key>
                            <value>8</value>
                        </entry>
                        <entry>
                            <key>Validation-query</key>
                        </entry>
                        <entry>
                            <key>dbcp-min-idle-conns</key>
                            <value>0</value>
                        </entry>
                        <entry>
                            <key>dbcp-max-idle-conns</key>
                            <value>8</value>
                        </entry>
                        <entry>
                            <key>dbcp-max-conn-lifetime</key>
                            <value>-1</value>
                        </entry>
                        <entry>
                            <key>dbcp-time-between-eviction-runs</key>
                            <value>-1</value>
                        </entry>
                        <entry>
                            <key>dbcp-min-evictable-idle-time</key>
                            <value>30 mins</value>
                        </entry>
                        <entry>
                            <key>dbcp-soft-min-evictable-idle-time</key>
                            <value>-1</value>
                        </entry>
                    </properties>
                    <state>ENABLED</state>
                    <type>org.apache.nifi.dbcp.DBCPConnectionPool</type>
                </controllerServices>
                <processors>
                    <id>466999fb-7277-3804-0000-000000000000</id>
                    <parentGroupId>e7711ce0-3250-33cc-0000-000000000000</parentGroupId>
                    <position>
                        <x>136.0</x>
                        <y>-80.0</y>
                    </position>
                    <versionedComponentId>466999fb-7277-3804-9bd2-da5a19a1f115</versionedComponentId>
                    <bundle>
                        <artifact>nifi-standard-nar</artifact>
                        <group>org.apache.nifi</group>
                        <version>1.25.0</version>
                    </bundle>
                    <config>
                        <backoffMechanism>PENALIZE_FLOWFILE</backoffMechanism>
                        <bulletinLevel>WARN</bulletinLevel>
                        <comments></comments>
                        <concurrentlySchedulableTaskCount>1</concurrentlySchedulableTaskCount>
                        <descriptors>
                            <entry>
<key>HTTP Method</key>
<value>
    <name>HTTP Method</name>
</value>
                            </entry>
                            <entry>
<key>Remote URL</key>
<value>
    <name>Remote URL</name>
</value>
                            </entry>
                            <entry>
<key>disable-http2</key>
<value>
    <name>disable-http2</name>
</value>
                            </entry>
                            <entry>
<key>SSL Context Service</key>
<value>
    <identifiesControllerService>org.apache.nifi.ssl.SSLContextService</identifiesControllerService>
    <name>SSL Context Service</name>
</value>
                            </entry>
                            <entry>
<key>Connection Timeout</key>
<value>
    <name>Connection Timeout</name>
</value>
                            </entry>
                            <entry>
<key>Read Timeout</key>
<value>
    <name>Read Timeout</name>
</value>
                            </entry>
                            <entry>
<key>Socket Write Timeout</key>
<value>
    <name>Socket Write Timeout</name>
</value>
                            </entry>
                            <entry>
<key>idle-timeout</key>
<value>
    <name>idle-timeout</name>
</value>
                            </entry>
                            <entry>
<key>max-idle-connections</key>
<value>
    <name>max-idle-connections</name>
</value>
                            </entry>
                            <entry>
<key>proxy-configuration-service</key>
<value>
    <identifiesControllerService>org.apache.nifi.proxy.ProxyConfigurationService</identifiesControllerService>
    <name>proxy-configuration-service</name>
</value>
                            </entry>
                            <entry>
<key>Proxy Host</key>
<value>
    <name>Proxy Host</name>
</value>
                            </entry>
                            <entry>
<key>Proxy Port</key>
<value>
    <dependencies>
        <propertyName>Proxy Host</propertyName>
    </dependencies>
    <name>Proxy Port</name>
</value>
                            </entry>
                            <entry>
<key>Proxy Type</key>
<value>
    <dependencies>
        <propertyName>Proxy Host</propertyName>
    </dependencies>
    <name>Proxy Type</name>
</value>
                            </entry>
                            <entry>
<key>invokehttp-proxy-user</key>
<value>
    <dependencies>
        <propertyName>Proxy Host</propertyName>
    </dependencies>
    <name>invokehttp-proxy-user</name>
</value>
                            </entry>
                            <entry>
<key>invokehttp-proxy-password</key>
<value>
    <dependencies>
        <propertyName>Proxy Host</propertyName>
    </dependencies>
    <name>invokehttp-proxy-password</name>
</value>
                            </entry>
                            <entry>
<key>oauth2-access-token-provider</key>
<value>
    <identifiesControllerService>org.apache.nifi.oauth2.OAuth2AccessTokenProvider</identifiesControllerService>
    <name>oauth2-access-token-provider</name>
</value>
                            </entry>
                            <entry>
<key>Basic Authentication Username</key>
<value>
    <name>Basic Authentication Username</name>
</value>
                            </entry>
                            <entry>
<key>Basic Authentication Password</key>
<value>
    <name>Basic Authentication Password</name>
</value>
                            </entry>
                            <entry>
<key>Digest Authentication</key>
<value>
    <dependencies>
        <propertyName>Basic Authentication Username</propertyName>
    </dependencies>
    <name>Digest Authentication</name>
</value>
                            </entry>
                            <entry>
<key>Penalize on "No Retry"</key>
<value>
    <name>Penalize on "No Retry"</name>
</value>
                            </entry>
                            <entry>
<key>send-message-body</key>
<value>
    <dependencies>
        <dependentValues>POST</dependentValues>
        <dependentValues>PATCH</dependentValues>
        <dependentValues>PUT</dependentValues>